LIST   26 "sch44het.out"
BAS    1 "sch44het.bas"
BCF   11 "sch44het.bcf"
OC   10 "sch44het.oc"
DATA(BINARY)  30 "sch44het.hed"
DATA(BINARY)  35 "sch44het.drw"
DATA(BINARY)   40 "sch44het.ccf"
PCG   12 "sch44het.pcg"
WEL   13 "44_lay.wel"
MT3D   29 "sch44het.hff"
