---------------------------------------------------------------------------------------------------------------------------------------------------------------
                                           _/_/_/_/  _/      _/  _/_/_/_/  _/_/_/ 
                                          _/    _/  _/      _/        _/  _/    _/ 
                                         _/_/_/    _/  _/  _/    _/_/_/  _/    _/ 
                                        _/    _/  _/  _/  _/        _/  _/    _/ 
                                       _/    _/  _/_/_/_/_/  _/_/_/_/  _/_/_/ 
---------------------------------------------------------------------------------------------------------------------------------------------------------------
			INPUTs for RW3D_Rx: REACTIVE TRANSPORT CODE BASED ON THE RANDOM WALK METHOD
---------------------------------------------------------------------------------------------------------------------------------------------------------------
0                                   		Debugging (0=Standard,10=Maximum) 
5   9                                  		Number of Aqueous and Mineral species 
A   B   C   D	E	  	                  	Name of Aqueous species 	A: Nitrate, B: Mobile KC, C: Complex, D: CT, E: Native microbe (Acetate)
F	G	H	I	J	K	L	M	N			Name of Immobile species 	F: P1, G: KCim, H: EimS, I: SCT, J, PCT, K: P2, L: PNM, M: NMim, N: Hypothetical
163.905555                             		Simulation Time
---------------------------------------------------------------------------------------------------------------------------------------------------------------
. GEOMETRY .
---------------------------------------------------------------------------------------------------------------------------------------------------------------
86    134    44                         	nx,ny,nz
Grid_XYZ.dat 		1.0 	1 	1      	dx: 		file,const,ivar,flag   (0 => const, else => use file)
Grid_XYZ.dat 		1.0 	2 	1      	dy: 		file,const,ivar,flag   (0 => const, else => use file)
Grid_XYZ.dat 		1.0 	3 	1      	dz: 		file,const,ivar,flag   (0 => const, else => use file)
not_used 		1.0	1	0	InactiveCell: 	file,const,ivar,flag (0 => nothing, 1 => GSLIB, 2 => MODFLOW, 3 => simple)
0 0 0 0 0 0                               	ibx1,ibx2,iby1,iby2,ibz1,ibz2 - boundary conditions
---------------------------------------------------------------------------------------------------------------------------------------------------------------
. TIME DISCRETIZATION .
---------------------------------------------------------------------------------------------------------------------------------------------------------------
constant_cu                         		Method (constant_move, constant_time, one_time_x_cell, constant_Pe, constant_Pe_or_Cu, optimum_dt)
0.01  0.1  0.1  0.1  0.1  0.1           		Dt, Cu, Pe, DaKINETIC, DaDECAY, DaMMT
---------------------------------------------------------------------------------------------------------------------------------------------------------------
. ADVECTION . 
---------------------------------------------------------------------------------------------------------------------------------------------------------------
T                                         	logical flag (F=no dispersion; T=yes)
Eulerian                                  	method (Eulerian,Exponential)
sch44het.ccf   		1.0	1 	2       qx(nx+1,ny,nz): file,const,ivar,flag   (0 => const, 1 => use file, 2 => use mf2k binary cell_by_cell flux file)
sch44het.ccf   		1.0 	1 	2       qy(nx,ny+1,nz): file,const,ivar,flag   (0 => const, 1 => use file, 2 => use mf2k binary cell_by_cell flux file)
sch44het.ccf   		1.0	1 	2       qz(nx,ny,nz+1): file,const,ivar,flag   (0 => const, 1 => use file, 2 => use mf2k binary cell_by_cell flux file)
not_used       		0.3 	1 	0       poro(nx,ny,nz): file,const,ivar,flag   (0 => const, 1 => use file)
88                                              NPER: 		Number of velocity stress periods
0.04166670    1    1.0000    SS			PERLEN:		length period, NSTP:number time steps, TSMULT: multiplier, SS/TR
0.08333330    1    1.0000    SS
0.08333330    1    1.0000    SS
0.04166670    1    1.0000    SS
19.7500000    1    1.0000    SS
0.20800000    1    1.0000    SS
0.04200000    1    1.0000    SS
2.00000000    1    1.0000    SS
0.20800000    1    1.0000    SS
0.04200000    1    1.0000    SS
5.00000000    1    1.0000    SS
0.20800000    1    1.0000    SS
0.04200000    1    1.0000    SS
2.00000000    1    1.0000    SS
0.20800000    1    1.0000    SS
0.04200000    1    1.0000    SS
2.00000000    1    1.0000    SS
0.20800000    1    1.0000    SS
0.04200000    1    1.0000    SS
3.00000000    1    1.0000    SS
0.20800000    1    1.0000    SS
0.04200000    1    1.0000    SS
2.00000000    1    1.0000    SS
0.20800000    1    1.0000    SS
0.04200000    1    1.0000    SS
2.00000000    1    1.0000    SS
0.20800000    1    1.0000    SS
0.04200000    1    1.0000    SS
3.00000000    1    1.0000    SS
0.20800000    1    1.0000    SS
0.04200000    1    1.0000    SS
3.00000000    1    1.0000    SS
0.20800000    1    1.0000    SS
0.04200000    1    1.0000    SS
5.00000000    1    1.0000    SS
0.20800000    1    1.0000    SS
0.04200000    1    1.0000    SS
7.00000000    1    1.0000    SS
0.20800000    1    1.0000    SS
0.04200000    1    1.0000    SS
3.00000000    1    1.0000    SS
0.20800000    1    1.0000    SS
0.04200000    1    1.0000    SS
5.00000000    1    1.0000    SS
0.05555550    1    1.0000    SS
0.08330000    1    1.0000    SS
0.04513880    1    1.0000    SS
0.08330000    1    1.0000    SS
6.75000000    1    1.0000    SS
0.20833000    1    1.0000    SS
0.04200000    1    1.0000    SS
6.75000000    1    1.0000    SS
0.20800000    1    1.0000    SS
0.04200000    1    1.0000    SS
6.75000000    1    1.0000    SS
0.20800000    1    1.0000    SS
0.04200000    1    1.0000    SS
6.75000000    1    1.0000    SS
0.20800000    1    1.0000    SS
0.04200000    1    1.0000    SS
6.75000000    1    1.0000    SS
0.20800000    1    1.0000    SS
0.04200000    1    1.0000    SS
6.75000000    1    1.0000    SS
0.20800000    1    1.0000    SS
0.04200000    1    1.0000    SS
6.75000000    1    1.0000    SS
0.20800000    1    1.0000    SS
0.04200000    1    1.0000    SS
6.75000000    1    1.0000    SS
0.20800000    1    1.0000    SS
0.04200000    1    1.0000    SS
6.75000000    1    1.0000    SS
0.20800000    1    1.0000    SS
0.04200000    1    1.0000    SS
6.75000000    1    1.0000    SS
0.20800000    1    1.0000    SS
0.04200000    1    1.0000    SS
6.75000000    1    1.0000    SS
0.20800000    1    1.0000    SS
0.04200000    1    1.0000    SS
6.75000000    1    1.0000    SS
0.20800000    1    1.0000    SS
0.04200000    1    1.0000    SS
6.75000000    1    1.0000    SS
0.20800000    1    1.0000    SS
0.04200000    1    1.0000    SS
6.75000000    1    1.0000    SS
---------------------------------------------------------------------------------------------------------------------------------------------------------------
. DISPERSION .
---------------------------------------------------------------------------------------------------------------------------------------------------------------
T                                           	logical flag (F=no dispersion; T=yes)
not_used       		0.03    1 	0    	aL:  		file,const,ivar,flag   (0 => const, else => use file)
not_used       		0.03	1 	0   	aTH: 		file,const,ivar,flag   (0 => const, else => use file)
not_used       		0.03 	1 	0      	aTV: 		file,const,ivar,flag   (0 => const, else => use file)
not_used       		1e-5 	1 	0      	Dm:  		file,const,ivar,flag   (0 => const, else => use file)
not_used       		0.0 	1 	0      	DmTH:  		file,const,ivar,flag   (0 => const, else => use file)
not_used       		0.0 	1 	0      	DmTV:  		file,const,ivar,flag   (0 => const, else => use file)
1.0 1.0 1.0 1.0 1.0                                 MULTa   (for each aqueous species)
1.0 13.0 1.0 0.578 1.0                                 MULTD   (for each aqueous species)
---------------------------------------------------------------------------------------------------------------------------------------------------------------
. MULTIRATE MASS TRANSFER .
---------------------------------------------------------------------------------------------------------------------------------------------------------------
F                                   		logical flag (F=no mass transfer; T=yes)
spherical_diffusion		    		type of mass transfer model (linear_sorption ; layered_diffusion ; spherical_diffusion ; multirate)
10						number of immobile zones or term for the Multirate series (for layered, cylindrical or spherical diffusion)
not_used		0.037	1	0	poro im_zone1:	file,const,ivar,flag (0 => const, else => use file) |porosity for each zone
not_used		0.3	1	0	alpha' zone1:	file,const,ivar,flag (0 => const, else => use file) |firt-order mass transfer rate for each zone
---------------------------------------------------------------------------------------------------------------------------------------------------------------
. CHEMICAL REACTIONS .
---------------------------------------------------------------------------------------------------------------------------------------------------------------
... sorption
----------------------------------------
F                               		logical flag (F=no mass transfer; T=yes)
linear						type of sorption (linear)
not_used 		2.9	1	0	Rm1: file,const,ivar,flag (0=> const,else => use file)
not_used 		2.9	1	0	Rm2: file,const,ivar,flag (0=> const,else => use file)
not_used 		2.9	1	0	Rm3: file,const,ivar,flag (0=> const,else => use file)
not_used 		2.9	1	0	Rm4: file,const,ivar,flag (0=> const,else => use file)
not_used 		2.9	1	0	Rm5: file,const,ivar,flag (0=> const,else => use file)
not_used 		2.9	1	0	Rm6: file,const,ivar,flag (0=> const,else => use file)
not_used 		2.9	1	0	Rm7: file,const,ivar,flag (0=> const,else => use file)
not_used 		2.9	1	0	Rm8: file,const,ivar,flag (0=> const,else => use file)
not_used 		2.9	1	0	Rm9: file,const,ivar,flag (0=> const,else => use file)
not_used 		2.9	1	0	Rm10: file,const,ivar,flag (0=> const,else => use file)
not_used 		2.9	1	0	Rm11: file,const,ivar,flag (0=> const,else => use file)
not_used 		2.9	1	0	Rm12: file,const,ivar,flag (0=> const,else => use file)
not_used 		2.9	1	0	Rm13: file,const,ivar,flag (0=> const,else => use file)
not_used 		2.9	1	0	Rm14: file,const,ivar,flag (0=> const,else => use file)
not_used 		13.08	1	0	Rim spe1-zone1		|
not_used 		13.08	1	0	Rim spe1-zone2		|
not_used 		13.08	1	0	Rim spe1-zone3		|
not_used 		13.08	1	0	Rim spe1-zone4		|
not_used 		13.08	1	0	Rim spe1-zone5		|
not_used 		13.08	1	0	Rim spe1-zone6		|
not_used 		13.08	1	0	Rim spe1-zone7		|
not_used 		13.08	1	0	Rim spe1-zone8		|
not_used 		13.08	1	0	Rim spe1-zone9		|
not_used 		13.08	1	0	Rim spe1-zone10		|
not_used 		13.08	1	0	Rim spe1-zone11		|
not_used 		13.08	1	0	Rim spe1-zone12		|
not_used 		13.08	1	0	Rim spe1-zone13		|
not_used 		13.08	1	0	Rim spe1-zone14		|
----------------------------------------
... first order decay network
----------------------------------------
F                               		logical flag (F=no mass transfer; T=yes)
1 						number of species within the decay network
A  						name of species (order controls the network if serial)
serial 						reaction arquitecture (serial; network)
not_used 		0.03	1	0	k1: file,const,ivar, flag (0=> const,else => use file)
not_used 		0.00	1	0	y11: file,const,ivar, flag (0=> const,else => use file)
not_used 		0.05	1	0	kim spe1-zone1		|first-order decay rate in immobile zones
----------------------------------------
... bimolecular reaction network
----------------------------------------
T                                           	logical flag (F=no mass transfer; T=yes)
16   2                                         	Number of chemical reactions
[ D        --> I  ]                         	reaction 1				CT -> SCT
[ I        --> D  ]                         	reaction 2				SCT -> CT
[ B        --> G  ]                         	reaction 3				KC -> KCim
[ G        --> B  ]                         	reaction 4				KCim -> KC
[ E        --> M  ]                         	reaction 5				NM -> NMim
[ M        --> E  ]                         	reaction 6				NMim -> NM
[ A   +  B --> C  ]                         	reaction 7				Nitrate + KC -> ES
[ A   +  G --> H  ]								reaction 8				Nitrate + KCim -> EimS
[ A   +  E --> E + L  ]                         reaction 9				Nitrate + NM -> NM
[ A   +  M --> M + L  ]                         reaction 10				Nitrate + NMim -> NMim
[ B   +  D --> F + B  ]							reaction 11				KC + CT -> PCT
[ D   +  G --> J + G  ]                     	reaction 12				KC + SCT -> PSCT
[ C        --> A + B  ]                     	reaction 13				ES -> Nitrate + KC
[ C        --> B + F + N ]                    	reaction 14				ES -> P + KC (grow)
[ H        --> A + G  ]                     	reaction 15				EimS -> Eim + Nitrate
[ H        --> G + K + N  ]                     reaction 16				Eims -> P2 + KCim (growth)
not_used  		0.23  1   	0      	KCTatt: file,const,ivar,flag (0 => const, else => use file):  attachment coefficient
not_used  		0.36  1   	0      	KCTdet: file,const,ivar,flag (0 => const, else => use file):  detachment coefficient
not_used  		0.90  1   	0      	Katt: file,const,ivar,flag (0 => const, else => use file):  attachment coefficient
not_used  		0.0192  1   	0      	Kdet: file,const,ivar,flag (0 => const, else => use file):  detachment coefficient
not_used  		0.90  1   	0      	Katt: file,const,ivar,flag (0 => const, else => use file):  attachment coefficient
not_used  		0.0192  1   	0      	Kdet: file,const,ivar,flag (0 => const, else => use file):  detachment coefficient
not_used  		1.44   1   	0      	Kf: file,const,ivar,flag (0 => const, else => use file):  binding rate constant
not_used  		1.44   1   	0      	Kf: file,const,ivar,flag (0 => const, else => use file):  binding rate constant
not_used  		4.11   1   	0      	Kf: file,const,ivar,flag (0 => const, else => use file):  binding with microflora
not_used  		4.11   1   	0      	Kf: file,const,ivar,flag (0 => const, else => use file):  binding with immobile microflora
not_used  		2.70  1   	0      	Kp: file,const,ivar,flag (0 => const, else => use file):  CT reaction rate coefficient
not_used  		2.70  1   	0      	Kp: file,const,ivar,flag (0 => const, else => use file):  CT reaction rate coefficient
not_used  		4.80  1   	0      	Kr: file,const,ivar,flag (0 => const, else => use file):  dissociation rate coefficient
not_used  		12.44  1   	0      	Kc: file,const,ivar,flag (0 => const, else => use file):  conversion rate constant
not_used  		4.80   1   	0      	Kr: file,const,ivar,flag (0 => const, else => use file):  dissociation rate coefficient
not_used  		12.44  1   	0      	Kc: file,const,ivar,flag (0 => const, else => use file):  conversion rate constant
not_used  		0.25  1   	0      	gy: file,const,ivar,flag (0 => const, else => use file):  growth yield coefficient 4
not_used  		0.25  1   	0      	gy: file,const,ivar,flag (0 => const, else => use file):  growth yield coefficient 8
---------------------------------------------------------------------------------------------------------------------------------------------------------------
. CONTROL SURFACE .
---------------------------------------------------------------------------------------------------------------------------------------------------------------
68                                         	nwell  => wells: xwell,ywell,rwell,zbot,ztop,np,flag(1=removed,0=pass thru)
Obs_09-35	39.93	22.41	0.5	15.5	18.0	0	T
Obs_09-45	39.93	22.41	0.5	12.5	15.0	0	T
Obs_09-55	39.93	22.31	0.5 9.50	12.0	0	T
Obs_09-65	40.03	22.41	0.5	6.50	9.00	0	T
Obs_09-75	39.93	22.41	0.5	3.50	6.00	0	T
Obs_10-35	39.83	28.41	0.5	15.5	18.0	0	T
Obs_10-45	39.93	28.41	0.5	12.5	15.0	0	T
Obs_10-55	39.83	28.41	0.5	9.50	12.0	0	T
Obs_10-65	39.83	28.41	0.5	6.50	9.00	0	T
Obs_10-75	39.83	28.51	0.5	3.50	6.00	0	T
Obs_11-35	39.53	34.01	0.5	15.5	18.0	0	T
Obs_11-45	39.53	34.11	0.5	12.5	15.0	0	T
Obs_11-55	39.43	34.01	0.5	9.50	12.0	0	T
Obs_11-65	39.43	33.91	0.5	6.50	9.00	0	T
Obs_11-75	39.53	34.01	0.5	3.50	6.00	0	T
Obs_12-35	40.03	26.51	0.5	15.5	18.0	0	T
Obs_12-45	40.03	26.51	0.5	12.5	15.0	0	T
Obs_12-55	40.03	26.51	0.5	9.50	12.0	0	T
Obs_12-65	40.03	26.51	0.5	6.50	9.00	0	T
Obs_12-75	40.03	26.51	0.5	3.50	6.00	0	T
Obs_13-35	40.33	30.21	0.5	15.5	18.0	0	T
Obs_13-45	40.33	30.21	0.5	12.5	15.0	0	T
Obs_13-55	40.33	30.11	0.5	9.50	12.0	0	T
Obs_13-65	40.33	30.21	0.5	6.50	9.00	0	T
Obs_13-75	40.33	30.31	0.5	3.50	6.00	0	T
D01_1	38.73	21.41	0.10	15.5	19.0	0	F
D01_2	38.53	21.41	0.10	11.0	15.5	0	F
D01_3	38.73	21.41	0.10	3.50	11.0	0	F
D02_1	38.53	22.41	0.10	13.0	19.0	0	F
D02_2	38.33	22.41	0.10	3.50	13.0	0	F
D03_1	38.93	23.21	0.10	14.5	19.0	0	F
D03_2	38.73	23.21	0.10	13.5	14.5	0	F
D03_3	38.73	23.01	0.10	5.75	13.5	0	F
D03_4	38.53	23.01	0.10	3.50	5.75	0	F
D04_1	38.73	24.21	0.10	16.5	19.0	0	F
D04_2	38.53	24.21	0.10	5.75	17.0	0	F
D04_3	38.33	24.21	0.10	3.50	5.75	0	F
D05_1	38.53	25.21	0.10	18.0	19.0	0	F
D05_2	38.53	25.41	0.10	13.0	18.0	0	F
D05_3	38.33	25.21	0.10	11.5	13.0	0	F
D05_4	38.33	25.41	0.10	10.5	11.5	0	F
D05_5	38.33	25.21	0.10	9.50	10.5	0	F
D05_6	38.33	25.41	0.10	3.50	9.50	0	F
D06_1	38.73	26.21	0.10	15.5	19.0	0	F
D06_2	38.73	26.41	0.10	3.50	15.5	0	F
D07_1	38.53	27.21	0.10	13.5	19.0	0	F
D07_2	38.33	27.21	0.10	3.50	13.5	0	F
D08_1	38.93	28.21	0.10	18.0	19.0	0	F
D08_2	38.93	28.41	0.10	3.50	18.0	0	F
D09_1	38.73	29.21	0.10	17.0	19.0	0	F
D09_2	38.73	29.41	0.10	6.75	17.0	0	F
D09_3	38.73	29.21	0.10	5.75	6.75	0	F
D09_4	38.73	29.41	0.10	3.50	5.75	0	F
D10_1	38.73	30.21	0.10	13.0	19.0	0	F
D10_2	38.93	30.21	0.10	3.50	13.0	0	F
D11_1	38.53	31.41	0.10	15.5	19.0	0	F
D11_2	38.33	31.41	0.10	8.50	15.5	0	F
D11_3	38.13	31.41	0.10	3.50	8.50	0	F
D12_1	38.73	32.21	0.10	17.0	19.0	0	F
D12_2	38.73	32.01	0.10	8.00	17.0	0	F
D12_3	38.73	31.81	0.10	3.50	8.00	0	F
D13_1	38.93	33.01	0.10	18.0	19.0	0	F
D13_2	38.73	33.01	0.10	14.5	18.0	0	F
D13_3	38.73	32.81	0.10	3.50	14.5	0	F
D14_1	38.73	34.01	0.10	17.0	19.0	0	F
D14_2	38.93	34.01	0.10	16.0	17.0	0	F
D14_3	38.73	34.01	0.10	3.50	16.0	0	F
D15_ 38.73	35.01	0.10	3.50	19.0	0	F
0                                           	nplane => planes: dist,type,flag(1=removed,pass thru)
3                                           	inner_boundary => planes: location,side,ls(1=>, 0=<)
43.  X  1
15.  Y  0
41.  Y  1
---------------------------------------------------------------------------------------------------------------------------------------------------------------
. INJECTIONS .
---------------------------------------------------------------------------------------------------------------------------------------------------------------
39                                         	Number of Injections
READ_CONCENTRATION_FILE    DIRAC                     Injection:  Type, Function (DIRAC/GENERAL)
Initial_CT.dat	1.0                                   File name
0.016  	0  	4								pmass,zone,specie
0.                                          Time of injection
READ_CONCENTRATION_FILE    DIRAC                     Injection:  Type, Function (DIRAC/GENERAL)
Sorbed_CT.dat	1.0                                    File name
0.016  	0  	9								pmass,zone,specie
0.                                          Time of injection
cells_file_flux_weighted		GENERAL         15 	Injection:  Type, Function (DIRAC/GENERAL)
0.016 0  2   				      	properties: pmass, zone, species
D15_Connect.dat					file name
TF_KC_e_15.dat  1.0                            	Time function: file,const
cells_file_flux_weighted		GENERAL         15 	Injection:  Type, Function (DIRAC/GENERAL)
0.016 0  2   				      	properties: pmass, zone, species
D14_Connect.dat					file name
TF_KC_e_14.dat  1.0                            	Time function: file,const
cells_file_flux_weighted		GENERAL         15 	Injection:  Type, Function (DIRAC/GENERAL)
0.016 0  2   				      	properties: pmass, zone, species
D13_Connect.dat					file name
TF_KC_e_13.dat  1.0                            	Time function: file,const
cells_file_flux_weighted		GENERAL         15 	Injection:  Type, Function (DIRAC/GENERAL)
0.016 0  2   				      	properties: pmass, zone, species
D12_Connect.dat					file name
TF_KC_e_12.dat  1.0                            	Time function: file,const
cells_file_flux_weighted		GENERAL         15 	Injection:  Type, Function (DIRAC/GENERAL)
0.016 0  2   				      	properties: pmass, zone, species
D11_Connect.dat					file name
TF_KC_e_11.dat  1.0                            	Time function: file,const
cells_file_flux_weighted		GENERAL         15 	Injection:  Type, Function (DIRAC/GENERAL)
0.016 0  2   				      	properties: pmass, zone, species
D10_Connect.dat					file name
TF_KC_e_10.dat  1.0                            	Time function: file,const
cells_file_flux_weighted		GENERAL         15 	Injection:  Type, Function (DIRAC/GENERAL)
0.016 0  2   				      	properties: pmass, zone, species
D09_Connect.dat					file name
TF_KC_e_09.dat  1.0                            	Time function: file,const
cells_file_flux_weighted		GENERAL         15 	Injection:  Type, Function (DIRAC/GENERAL)
0.016 0  2   				      	properties: pmass, zone, species
D08_Connect.dat					file name
TF_KC_e_08.dat  1.0                            	Time function: file,const
cells_file_flux_weighted		GENERAL         15 	Injection:  Type, Function (DIRAC/GENERAL)
0.016 0  2   				      	properties: pmass, zone, species
D07_Connect.dat					file name
TF_KC_e_07.dat  1.0                            	Time function: file,const
cells_file_flux_weighted		GENERAL         15 	Injection:  Type, Function (DIRAC/GENERAL)
0.016 0  2   				      	properties: pmass, zone, species
D06_Connect.dat					file name
TF_KC_e_06.dat  1.0                            	Time function: file,const
cells_file_flux_weighted		GENERAL         15 	Injection:  Type, Function (DIRAC/GENERAL)
0.016 0  2   				      	properties: pmass, zone, species
D05_Connect.dat					file name
TF_KC_e_05.dat  1.0                            	Time function: file,const
cells_file_flux_weighted		GENERAL         15 	Injection:  Type, Function (DIRAC/GENERAL)
0.016 0  2   				      	properties: pmass, zone, species
D04_Connect.dat					file name
TF_KC_e_04.dat  1.0                            	Time function: file,const
cells_file_flux_weighted		GENERAL         15 	Injection:  Type, Function (DIRAC/GENERAL)
0.016 0  2   				      	properties: pmass, zone, species
D03_Connect.dat					file name
TF_KC_e_03.dat  1.0                            	Time function: file,const
cells_file_flux_weighted		GENERAL         15 	Injection:  Type, Function (DIRAC/GENERAL)
0.016 0  2   				      	properties: pmass, zone, species
D02_Connect.dat					file name
TF_KC_e_02.dat  1.0                            	Time function: file,const
cells_file_flux_weighted		GENERAL         15 	Injection:  Type, Function (DIRAC/GENERAL)
0.016 0  2   				      	properties: pmass, zone, species
D01_Connect.dat					file name
TF_KC_e_01.dat  1.0                            	Time function: file,const
cells_file_flux_weighted		GENERAL         15 	Injection:  Type, Function (DIRAC/GENERAL)
0.016 0  5   				      	properties: pmass, zone, species
D15_Connect.dat					file name
TF_NM_e_15.dat  1.0                            	Time function: file,const
cells_file_flux_weighted		GENERAL         15 	Injection:  Type, Function (DIRAC/GENERAL)
0.016 0  5   				      	properties: pmass, zone, species
D14_Connect.dat					file name
TF_NM_e_14.dat  1.0                            	Time function: file,const
cells_file_flux_weighted		GENERAL         15 	Injection:  Type, Function (DIRAC/GENERAL)
0.016 0  5   				      	properties: pmass, zone, species
D13_Connect.dat					file name
TF_NM_e_13.dat  1.0                            	Time function: file,const
cells_file_flux_weighted		GENERAL         15 	Injection:  Type, Function (DIRAC/GENERAL)
0.016 0  5   				      	properties: pmass, zone, species
D12_Connect.dat					file name
TF_NM_e_12.dat  1.0                            	Time function: file,const
cells_file_flux_weighted		GENERAL         15 	Injection:  Type, Function (DIRAC/GENERAL)
0.016 0  5   				      	properties: pmass, zone, species
D11_Connect.dat					file name
TF_NM_e_11.dat  1.0                            	Time function: file,const
cells_file_flux_weighted		GENERAL         15 	Injection:  Type, Function (DIRAC/GENERAL)
0.016 0  5   				      	properties: pmass, zone, species
D10_Connect.dat					file name
TF_NM_e_10.dat  1.0                            	Time function: file,const
cells_file_flux_weighted		GENERAL         15 	Injection:  Type, Function (DIRAC/GENERAL)
0.016 0  5   				      	properties: pmass, zone, species
D09_Connect.dat					file name
TF_NM_e_09.dat  1.0                            	Time function: file,const
cells_file_flux_weighted		GENERAL         15 	Injection:  Type, Function (DIRAC/GENERAL)
0.016 0  5   				      	properties: pmass, zone, species
D08_Connect.dat					file name
TF_NM_e_08.dat  1.0                            	Time function: file,const
cells_file_flux_weighted		GENERAL         15 	Injection:  Type, Function (DIRAC/GENERAL)
0.016 0  5   				      	properties: pmass, zone, species
D07_Connect.dat					file name
TF_NM_e_07.dat  1.0                            	Time function: file,const
cells_file_flux_weighted		GENERAL         15 	Injection:  Type, Function (DIRAC/GENERAL)
0.016 0  5   				      	properties: pmass, zone, species
D06_Connect.dat					file name
TF_NM_e_06.dat  1.0                            	Time function: file,const
cells_file_flux_weighted		GENERAL         15 	Injection:  Type, Function (DIRAC/GENERAL)
0.016 0  5   				      	properties: pmass, zone, species
D05_Connect.dat					file name
TF_NM_e_05.dat  1.0                            	Time function: file,const
cells_file_flux_weighted		GENERAL         15 	Injection:  Type, Function (DIRAC/GENERAL)
0.016 0  5   				      	properties: pmass, zone, species
D04_Connect.dat					file name
TF_NM_e_04.dat  1.0                            	Time function: file,const
cells_file_flux_weighted		GENERAL         15 	Injection:  Type, Function (DIRAC/GENERAL)
0.016 0  5   				      	properties: pmass, zone, species
D03_Connect.dat					file name
TF_NM_e_03.dat  1.0                            	Time function: file,const
cells_file_flux_weighted		GENERAL         15 	Injection:  Type, Function (DIRAC/GENERAL)
0.016 0  5   				      	properties: pmass, zone, species
D02_Connect.dat					file name
TF_NM_e_02.dat  1.0                            	Time function: file,const
cells_file_flux_weighted		GENERAL         15 	Injection:  Type, Function (DIRAC/GENERAL)
0.016 0  5   				      	properties: pmass, zone, species
D01_Connect.dat					file name
TF_NM_e_01.dat  1.0                            	Time function: file,const
Block            DIRAC                     Injection:  Type, Function (DIRAC/GENERAL)  cyrcle
0.016  	0  	1                           properties: pmass, zone, species
1  30   7   42   102   9                   idwn,jdwn,kdwn,iup,jup,kup
0                                         Time of injection 
610922                                     Number of particles
Block            DIRAC                     Injection:  Type, Function (DIRAC/GENERAL)  cyrcle
0.016  	0  	1                           properties: pmass, zone, species
1  30   10   42   102   13                   idwn,jdwn,kdwn,iup,jup,kup
0                                         Time of injection 
658377                                     Number of particles
Block            DIRAC                     Injection:  Type, Function (DIRAC/GENERAL)  cyrcle
0.016  	0  	1                           properties: pmass, zone, species
1  30   14   42   102   19                   idwn,jdwn,kdwn,iup,jup,kup
0                                         Time of injection 
650399                                     Number of particles
Block            DIRAC                     Injection:  Type, Function (DIRAC/GENERAL)  cyrcle
0.016  	0  	1                           properties: pmass, zone, species
1  30   20   42   102   25                   idwn,jdwn,kdwn,iup,jup,kup
0                                         Time of injection 
337775                                    Number of particles
Block            DIRAC                     Injection:  Type, Function (DIRAC/GENERAL)  cyrcle
0.016  	0  	1                           properties: pmass, zone, species
1  30   26   42   102   31                   idwn,jdwn,kdwn,iup,jup,kup
0                                         Time of injection 
319145                                    Number of particles
Block            DIRAC                     Injection:  Type, Function (DIRAC/GENERAL)  cyrcle
0.016  	0  	1                           properties: pmass, zone, species
1  30   32   42   102   36                   idwn,jdwn,kdwn,iup,jup,kup
0                                         Time of injection 
308135                                    Number of particles
Block            DIRAC                     Injection:  Type, Function (DIRAC/GENERAL)  cyrcle
0.016  	0  	1                           properties: pmass, zone, species
1  30   37   42   102   39                   idwn,jdwn,kdwn,iup,jup,kup
0                                         Time of injection 
460075                                    Number of particles
-----------------------------------------------------------------------------------